data_NO_RECURSION  [CUB,CUB,cP16] (STD_CONV doi:10.1016/j.commatsci.2010.05.010) with_corners
_pd_phase_name NO_RECURSION  [CUB,CUB,cP16] (STD_CONV doi:10.1016/j.commatsci.2010.05.010) with_corners
_cell_length_a  5.9786291023
_cell_length_b  5.9786291023
_cell_length_c  5.9786291023
_cell_angle_alpha  90.0000000000
_cell_angle_beta  90.0000000000
_cell_angle_gamma  90.0000000000
_symmetry_space_group_name_H-M  'P1'
_symmetry_Int_Tables_Number  1
loop_
_symmetry_equiv_pos_site_id
_symmetry_equiv_pos_as_xyz_
  1  x,y,z
loop_
 _atom_site_label
 _atom_site_occupancy
 _atom_site_fract_x
 _atom_site_fract_y
 _atom_site_fract_z
 _atom_site_thermal_displace_type
 _atom_site_B_iso_or_equiv
 _atom_site_type_symbol
Al1 1.0 0.7500000000 0.2500000000 0.2500000000  Biso 1.0 Al
Al2 1.0 0.2500000000 0.7500000000 0.2500000000  Biso 1.0 Al
Al3 1.0 0.2500000000 0.2500000000 0.7500000000  Biso 1.0 Al
Al4 1.0 0.7500000000 0.7500000000 0.7500000000  Biso 1.0 Al
Al5 1.0 0.2500000000 0.2500000000 0.2500000000  Biso 1.0 Al
Al6 1.0 0.7500000000 0.7500000000 0.2500000000  Biso 1.0 Al
Al7 1.0 0.7500000000 0.2500000000 0.7500000000  Biso 1.0 Al
Al8 1.0 0.2500000000 0.7500000000 0.7500000000  Biso 1.0 Al
Cu9 1.0 0.0000000000 0.0000000000 0.0000000000  Biso 1.0 Cu
Cu10 1.0 0.0000000000 0.0000000000 0.9900000000  Biso 1.0 Cu
Cu11 1.0 0.0000000000 0.9900000000 0.0000000000  Biso 1.0 Cu
Cu12 1.0 0.0000000000 0.9900000000 0.9900000000  Biso 1.0 Cu
Cu13 1.0 0.9900000000 0.0000000000 0.0000000000  Biso 1.0 Cu
Cu14 1.0 0.9900000000 0.0000000000 0.9900000000  Biso 1.0 Cu
Cu15 1.0 0.9900000000 0.9900000000 0.0000000000  Biso 1.0 Cu
Cu16 1.0 0.9900000000 0.9900000000 0.9900000000  Biso 1.0 Cu
Cu17 1.0 0.5000000000 0.5000000000 0.0000000000  Biso 1.0 Cu
Cu18 1.0 0.5000000000 0.5000000000 0.9900000000  Biso 1.0 Cu
Cu19 1.0 0.5000000000 0.0000000000 0.5000000000  Biso 1.0 Cu
Cu20 1.0 0.5000000000 0.9900000000 0.5000000000  Biso 1.0 Cu
Cu21 1.0 0.0000000000 0.5000000000 0.5000000000  Biso 1.0 Cu
Cu22 1.0 0.9900000000 0.5000000000 0.5000000000  Biso 1.0 Cu
Mn23 1.0 0.5000000000 0.0000000000 0.0000000000  Biso 1.0 Mn
Mn24 1.0 0.5000000000 0.0000000000 0.9900000000  Biso 1.0 Mn
Mn25 1.0 0.5000000000 0.9900000000 0.0000000000  Biso 1.0 Mn
Mn26 1.0 0.5000000000 0.9900000000 0.9900000000  Biso 1.0 Mn
Mn27 1.0 0.0000000000 0.5000000000 0.0000000000  Biso 1.0 Mn
Mn28 1.0 0.0000000000 0.5000000000 0.9900000000  Biso 1.0 Mn
Mn29 1.0 0.9900000000 0.5000000000 0.0000000000  Biso 1.0 Mn
Mn30 1.0 0.9900000000 0.5000000000 0.9900000000  Biso 1.0 Mn
Mn31 1.0 0.0000000000 0.0000000000 0.5000000000  Biso 1.0 Mn
Mn32 1.0 0.0000000000 0.9900000000 0.5000000000  Biso 1.0 Mn
Mn33 1.0 0.9900000000 0.0000000000 0.5000000000  Biso 1.0 Mn
Mn34 1.0 0.9900000000 0.9900000000 0.5000000000  Biso 1.0 Mn
Mn35 1.0 0.5000000000 0.5000000000 0.5000000000  Biso 1.0 Mn
