data_NO_RECURSION  [FCC,FCC,cF16] (STD_PRIM doi:10.1016/j.commatsci.2010.05.010) with_corners
_pd_phase_name NO_RECURSION  [FCC,FCC,cF16] (STD_PRIM doi:10.1016/j.commatsci.2010.05.010) with_corners
_cell_length_a  4.2275291804
_cell_length_b  4.2275291804
_cell_length_c  4.2275291804
_cell_angle_alpha  60.0000000000
_cell_angle_beta  60.0000000000
_cell_angle_gamma  60.0000000000
_symmetry_space_group_name_H-M  'P1'
_symmetry_Int_Tables_Number  1
loop_
_symmetry_equiv_pos_site_id
_symmetry_equiv_pos_as_xyz_
  1  x,y,z
loop_
 _atom_site_label
 _atom_site_occupancy
 _atom_site_fract_x
 _atom_site_fract_y
 _atom_site_fract_z
 _atom_site_thermal_displace_type
 _atom_site_B_iso_or_equiv
 _atom_site_type_symbol
Al1 1.0 0.7500000000 0.7500000000 0.7500000000  Biso 1.0 Al
Al2 1.0 0.2500000000 0.2500000000 0.2500000000  Biso 1.0 Al
Cu3 1.0 0.0000000000 0.0000000000 0.0000000000  Biso 1.0 Cu
Cu4 1.0 0.0000000000 0.0000000000 0.9900000000  Biso 1.0 Cu
Cu5 1.0 0.0000000000 0.9900000000 0.0000000000  Biso 1.0 Cu
Cu6 1.0 0.0000000000 0.9900000000 0.9900000000  Biso 1.0 Cu
Cu7 1.0 0.9900000000 0.0000000000 0.0000000000  Biso 1.0 Cu
Cu8 1.0 0.9900000000 0.0000000000 0.9900000000  Biso 1.0 Cu
Cu9 1.0 0.9900000000 0.9900000000 0.0000000000  Biso 1.0 Cu
Cu10 1.0 0.9900000000 0.9900000000 0.9900000000  Biso 1.0 Cu
Mn11 1.0 0.5000000000 0.5000000000 0.5000000000  Biso 1.0 Mn
